Version 4
SHEET 1 880 680
WIRE 240 96 80 96
WIRE 416 96 320 96
WIRE 80 160 80 96
WIRE 416 160 416 96
WIRE 80 272 80 240
WIRE 272 272 80 272
WIRE 416 272 416 224
WIRE 416 272 272 272
FLAG 272 272 0
SYMBOL voltage 80 144 R0
WINDOW 123 0 0 Left 0
WINDOW 39 0 0 Left 0
SYMATTR InstName V1
SYMATTR Value 12
SYMBOL res 224 112 R270
WINDOW 0 32 56 VTop 2
WINDOW 3 0 56 VBottom 2
SYMATTR InstName R1
SYMATTR Value 1k
SYMBOL diode 432 224 R180
WINDOW 0 24 64 Left 2
WINDOW 3 24 0 Left 2
SYMATTR InstName D1
SYMATTR Value 1N4148
SYMATTR Description Zener Diode
SYMATTR Type zener
TEXT 46 296 Left 2 !.tran 5m
TEXT 48 320 Left 2 !.op 5m
